<?xml version="1.0" encoding="UTF-8"?>
<routes>
    <!-- 定义车辆类型 -->
    <vType id="car" accel="2.6" decel="4.5" sigma="0.5" length="5" maxSpeed="13.9" color="1,0,0"/>
    
    <!-- 定义路线 -->
    <route id="route_ns" edges="N2C C2S"/>
    <route id="route_we" edges="W2C C2E"/>

    <!-- 手动定义足够多的车辆 -->
    <vehicle id="veh1"  type="car" route="route_ns" depart="0"/>
    <vehicle id="veh2"  type="car" route="route_we" depart="2"/>
    <vehicle id="veh3"  type="car" route="route_ns" depart="4"/>
    <vehicle id="veh4"  type="car" route="route_we" depart="6"/>
    <vehicle id="veh5"  type="car" route="route_ns" depart="8"/>
    <vehicle id="veh6"  type="car" route="route_we" depart="10"/>
    <vehicle id="veh7"  type="car" route="route_ns" depart="12"/>
    <vehicle id="veh8"  type="car" route="route_we" depart="14"/>
    <vehicle id="veh9"  type="car" route="route_ns" depart="16"/>
    <vehicle id="veh10" type="car" route="route_we" depart="18"/>
    <vehicle id="veh11" type="car" route="route_ns" depart="20"/>
    <vehicle id="veh12" type="car" route="route_we" depart="22"/>
    <vehicle id="veh13" type="car" route="route_ns" depart="24"/>
    <vehicle id="veh14" type="car" route="route_we" depart="26"/>
    <vehicle id="veh15" type="car" route="route_ns" depart="28"/>
    <vehicle id="veh16" type="car" route="route_we" depart="30"/>
    <vehicle id="veh17" type="car" route="route_ns" depart="32"/>
    <vehicle id="veh18" type="car" route="route_we" depart="34"/>
    <vehicle id="veh19" type="car" route="route_ns" depart="36"/>
    <vehicle id="veh20" type="car" route="route_we" depart="38"/>
    <vehicle id="veh21" type="car" route="route_ns" depart="40"/>
    <vehicle id="veh22" type="car" route="route_we" depart="42"/>
    <vehicle id="veh23" type="car" route="route_ns" depart="44"/>
    <vehicle id="veh24" type="car" route="route_we" depart="46"/>
    <vehicle id="veh25" type="car" route="route_ns" depart="48"/>
    <vehicle id="veh26" type="car" route="route_we" depart="50"/>
    <vehicle id="veh27" type="car" route="route_ns" depart="52"/>
    <vehicle id="veh28" type="car" route="route_we" depart="54"/>
    <vehicle id="veh29" type="car" route="route_ns" depart="56"/>
    <vehicle id="veh30" type="car" route="route_we" depart="58"/>
    <vehicle id="veh31" type="car" route="route_ns" depart="60"/>
    <vehicle id="veh32" type="car" route="route_we" depart="62"/>
    <vehicle id="veh33" type="car" route="route_ns" depart="64"/>
    <vehicle id="veh34" type="car" route="route_we" depart="66"/>
    <vehicle id="veh35" type="car" route="route_ns" depart="68"/>
    <vehicle id="veh36" type="car" route="route_we" depart="70"/>
    <vehicle id="veh37" type="car" route="route_ns" depart="72"/>
    <vehicle id="veh38" type="car" route="route_we" depart="74"/>
    <vehicle id="veh39" type="car" route="route_ns" depart="76"/>
    <vehicle id="veh40" type="car" route="route_we" depart="78"/>
    <vehicle id="veh41" type="car" route="route_ns" depart="80"/>
    <vehicle id="veh42" type="car" route="route_we" depart="82"/>
    <vehicle id="veh43" type="car" route="route_ns" depart="82"/>
    <vehicle id="veh44" type="car" route="route_we" depart="86"/>
    <vehicle id="veh45" type="car" route="route_ns" depart="89"/>
    <vehicle id="veh46" type="car" route="route_we" depart="103"/>
    <vehicle id="veh47" type="car" route="route_ns" depart="95"/>
</routes>
