<?xml version="1.0" encoding="UTF-8"?>
<configuration>
    <input>
        <net-file value="4way.net.xml"/>
        <route-files value="4way.rou.xml"/>
    </input>
    <time>
        <begin value="0"/>
        <end value="600"/> 
        <!--600： 10 min -->
    </time>
</configuration>


